Version 4
SHEET 1 880 680
WIRE 208 64 144 64
WIRE 336 64 288 64
WIRE 496 64 416 64
WIRE 144 112 144 64
WIRE 496 128 496 64
WIRE 144 240 144 192
WIRE 496 240 496 192
WIRE 496 240 144 240
WIRE 144 304 144 240
FLAG 144 304 0
FLAG 144 64 Input
FLAG 496 64 Output
SYMBOL res 304 48 R90
WINDOW 0 0 56 VBottom 2
WINDOW 3 32 56 VTop 2
SYMATTR InstName R1
SYMATTR Value 750
SYMBOL cap 480 128 R0
SYMATTR InstName C1
SYMATTR Value 10n
SYMBOL ind 320 80 R270
WINDOW 0 32 56 VTop 2
WINDOW 3 5 56 VBottom 2
SYMATTR InstName L1
SYMATTR Value 220m
SYMBOL Misc\\signal 144 96 R0
WINDOW 123 24 132 Left 2
WINDOW 39 0 0 Left 0
SYMATTR Value2 AC 1
SYMATTR InstName V1
TEXT 224 272 Left 2 !.ac dec 100 500 100k
